STAAD SPACE
START JOB INFORMATION
ENGINEER DATE 23-Nov-25
END JOB INFORMATION
INPUT WIDTH 79
UNIT METER KN
JOINT COORDINATES
1 0 -1.5 0; 2 4.2 -1.5 0; 3 9.15 -1.5 0; 4 13.28 -1.5 0; 5 16.6 -1.5 0;
6 0 3.4 0; 7 4.2 3.4 0; 8 9.15 3.4 0; 9 13.28 3.4 0; 10 16.6 3.4 0; 11 0 6.8 0;
12 4.2 6.8 0; 13 9.15 6.8 0; 14 13.28 6.8 0; 15 16.6 6.8 0; 16 0 -1.5 4.13;
17 4.2 -1.5 4.13; 18 9.15 -1.5 4.13; 19 13.28 -1.5 4.13; 20 16.6 -1.5 4.13;
21 0 3.4 4.13; 22 4.2 3.4 4.13; 23 9.15 3.4 4.13; 24 13.28 3.4 4.13;
25 16.6 3.4 4.13; 26 0 6.8 4.13; 27 4.2 6.8 4.13; 28 9.15 6.8 4.13;
29 13.28 6.8 4.13; 30 16.6 6.8 4.13; 31 0 -1.5 8.48; 32 4.2 -1.5 8.48;
33 9.15 -1.5 8.48; 34 13.28 -1.5 8.48; 35 16.6 -1.5 8.48; 36 0 3.4 8.48;
37 4.2 3.4 8.48; 38 9.15 3.4 8.48; 39 13.28 3.4 8.48; 40 16.6 3.4 8.48;
41 0 6.8 8.48; 42 4.2 6.8 8.48; 43 9.15 6.8 8.48; 44 13.28 6.8 8.48;
45 16.6 6.8 8.48; 46 0 10.2 4.13; 47 4.2 10.2 4.13; 48 0 10.2 8.48;
49 4.2 10.2 8.48; 50 0 0 0; 51 4.2 0 0; 52 9.15 0 0; 53 13.28 0 0; 54 16.6 0 0;
55 0 0 4.13; 56 4.2 0 4.13; 57 9.15 0 4.13; 58 13.28 0 4.13; 59 16.6 0 4.13;
60 0 0 8.48; 61 4.2 0 8.48; 62 9.15 0 8.48; 63 13.28 0 8.48; 64 16.6 0 8.48;
MEMBER INCIDENCES
1 6 7; 2 7 8; 3 8 9; 4 9 10; 5 11 12; 6 12 13; 8 14 15; 9 1 50; 10 2 51;
11 3 52; 12 4 53; 13 5 54; 14 6 11; 15 7 12; 16 8 13; 17 9 14; 18 10 15;
19 21 22; 20 22 23; 21 23 24; 22 24 25; 23 26 27; 24 27 28; 25 28 29; 26 29 30;
27 16 55; 28 17 56; 29 18 57; 30 19 58; 31 20 59; 32 21 26; 33 22 27; 34 23 28;
35 24 29; 36 25 30; 37 36 37; 38 37 38; 39 38 39; 40 39 40; 41 41 42; 42 42 43;
43 43 44; 44 44 45; 45 31 60; 46 32 61; 47 33 62; 48 34 63; 49 35 64; 50 36 41;
51 37 42; 52 38 43; 53 39 44; 54 40 45; 55 6 21; 56 7 22; 57 8 23; 58 9 24;
59 10 25; 60 11 26; 61 12 27; 62 13 28; 63 14 29; 64 15 30; 65 21 36; 66 22 37;
67 23 38; 68 24 39; 69 25 40; 70 26 41; 71 27 42; 72 28 43; 73 29 44; 74 30 45;
75 41 48; 76 26 46; 77 42 49; 78 27 47; 79 47 46; 80 46 48; 81 48 49; 82 49 47;
105 50 6; 106 51 7; 107 52 8; 108 53 9; 109 54 10; 110 55 21; 111 56 22;
112 57 23; 113 58 24; 114 59 25; 115 60 36; 116 61 37; 117 62 38; 118 63 39;
119 64 40; 120 50 55; 121 55 60; 122 50 51; 123 51 52; 124 52 53; 125 53 54;
126 60 61; 127 61 62; 128 62 63; 129 63 64; 130 54 59; 131 59 64; 132 53 58;
133 58 63; 134 52 57; 135 57 62; 136 51 56; 137 56 61; 138 55 56; 139 56 57;
140 57 58; 141 58 59;
START GROUP DEFINITION
MEMBER
_INTERNALFRAME1 12 17 30 35 48 53 58 63 68 73 108 113 118 132 133
END GROUP DEFINITION
DEFINE MATERIAL START
ISOTROPIC CONCRETE
E 2.17185e+07
POISSON 0.17
DENSITY 23.5616
ALPHA 1e-05
DAMP 0.05
G 9.28139e+06
TYPE CONCRETE
STRENGTH FCU 27579
END DEFINE MATERIAL
MEMBER PROPERTY
9 TO 18 27 TO 36 45 TO 54 75 TO 78 105 TO 119 PRIS YD 0.23 ZD 0.23
1 TO 6 8 19 TO 26 37 TO 44 55 TO 74 79 TO 82 120 TO 141 PRIS YD 0.23 ZD 0.35
CONSTANTS
MATERIAL CONCRETE ALL
SUPPORTS
1 TO 5 16 TO 20 31 TO 35 FIXED
LOAD 1 LOADTYPE Dead  TITLE DL
SELFWEIGHT Y -1 
FLOOR LOAD
YRANGE 3.4 3.4 FLOAD -5 XRANGE 0 4.2  ZRANGE 0 4.13  GY
YRANGE 3.4 3.4 FLOAD -5 XRANGE 4.2 9.15  ZRANGE 0 4.13  GY
YRANGE 3.4 3.4 FLOAD -5 XRANGE 9.15 13.28  ZRANGE 0 4.13  GY
YRANGE 3.4 3.4 FLOAD -5 XRANGE 9.15 13.28  ZRANGE 4.13 8.48  GY
YRANGE 3.4 3.4 FLOAD -5 XRANGE 13.28 16.6  ZRANGE 0 4.13  GY
YRANGE 3.4 3.4 FLOAD -5 XRANGE 13.28 16.6  ZRANGE 4.13 8.48  GY
YRANGE 3.4 3.4 FLOAD -5 XRANGE 4.2 9.15  ZRANGE 4.13 8.48  GY
YRANGE 6.8 6.8 FLOAD -5 XRANGE 0 4.2  ZRANGE 0 4.13  GY
YRANGE 6.8 6.8 FLOAD -5 XRANGE 4.2 9.15  ZRANGE 0 4.13  GY
YRANGE 6.8 6.8 FLOAD -5 XRANGE 4.2 9.15  ZRANGE 4.13 8.48  GY
YRANGE 6.8 6.8 FLOAD -5 XRANGE 9.15 13.28  ZRANGE 4.13 8.48  GY
YRANGE 6.8 6.8 FLOAD -5 XRANGE 13.28 16.6  ZRANGE 0 4.13  GY
YRANGE 6.8 6.8 FLOAD -5 XRANGE 13.28 16.6  ZRANGE 4.13 8.48  GY
YRANGE 10.2 10.2 FLOAD -5 XRANGE 0 4.2  ZRANGE 4.13 8.48  GY
MEMBER LOAD
1 TO 5 19 TO 23 37 TO 41 55 TO 61 65 TO 71 UNI GY -14.72
LOAD 2 LOADTYPE Live  TITLE LL
FLOOR LOAD
YRANGE 3.4 3.4 FLOAD -5 XRANGE 0 4.2  ZRANGE 0 4.13  GY
YRANGE 3.4 3.4 FLOAD -5 XRANGE 4.2 9.15  ZRANGE 0 4.13  GY
YRANGE 3.4 3.4 FLOAD -5 XRANGE 4.2 9.15  ZRANGE 4.13 8.48  GY
YRANGE 3.4 3.4 FLOAD -5 XRANGE 9.15 13.28  ZRANGE 0 4.13  GY
YRANGE 3.4 3.4 FLOAD -5 XRANGE 9.15 13.28  ZRANGE 4.13 8.48  GY
YRANGE 3.4 3.4 FLOAD -5 XRANGE 13.28 16.6  ZRANGE 4.13 8.48  GY
YRANGE 3.4 3.4 FLOAD -5 XRANGE 13.28 16.6  ZRANGE 0 4.13  GY
YRANGE 6.8 6.8 FLOAD -5 XRANGE 0 4.2  ZRANGE 0 4.13  GY
YRANGE 6.8 6.8 FLOAD -5 XRANGE 0 4.2  ZRANGE 4.13 8.48  GY
YRANGE 6.8 6.8 FLOAD -5 XRANGE 4.2 9.15  ZRANGE 4.13 8.48  GY
YRANGE 6.8 6.8 FLOAD -5 XRANGE 4.2 9.15  ZRANGE 0 4.13  GY
YRANGE 6.8 6.8 FLOAD -5 XRANGE 9.15 13.28  ZRANGE 4.13 8.48  GY
YRANGE 6.8 6.8 FLOAD -5 XRANGE 13.28 16.6  ZRANGE 4.13 8.48  GY
YRANGE 6.8 6.8 FLOAD -5 XRANGE 13.28 16.6  ZRANGE 0 4.13  GY
YRANGE 10.2 10.2 FLOAD -5 XRANGE 0 4.2  ZRANGE 4.13 8.48  GY
LOAD COMB 3 1.5DL+1.5LL
1 1.5 2 1.5 
PERFORM ANALYSIS PRINT ALL
FINISH
